TELEGRAM_TOKEN=
TELEMAC_ID=
ADMISION_ID=


DB_USER=
DB_HOST=
DB_DATABASE=
DB_PASSWORD=
DB_PORT=


TAQUILLA_SHEET=


LOGIN_PASSWORD=


ADMISION_URL=


ME_ID=
JZ_ID=
AL_ID=